Version 4
SHEET 1 1648 680
WIRE 848 -16 816 -16
WIRE 944 -16 912 -16
WIRE 304 48 272 48
WIRE 464 64 368 64
WIRE 816 64 816 -16
WIRE 816 64 464 64
WIRE 832 64 816 64
WIRE 928 64 912 64
WIRE 944 64 944 -16
WIRE 944 64 928 64
WIRE 1008 64 944 64
WIRE 1152 64 1088 64
WIRE 1200 64 1152 64
WIRE 1328 64 1280 64
WIRE 1360 64 1328 64
WIRE 208 80 208 64
WIRE 304 80 208 80
WIRE 464 80 464 64
WIRE 48 128 48 64
WIRE -80 160 -288 160
WIRE 272 160 272 48
WIRE 320 160 272 160
WIRE 464 160 320 160
WIRE 1360 160 1360 64
WIRE -144 176 -208 176
WIRE 320 176 320 160
WIRE 928 176 928 64
WIRE 960 176 928 176
WIRE 1152 176 1152 64
WIRE 1152 176 1120 176
WIRE -288 192 -288 160
WIRE -144 192 -144 176
WIRE -80 192 -144 192
WIRE 464 192 464 160
WIRE 960 208 816 208
WIRE -80 224 -144 224
WIRE 208 224 208 80
WIRE 208 224 144 224
WIRE 816 224 816 208
WIRE 960 240 928 240
WIRE 1152 240 1120 240
WIRE -144 256 -144 224
WIRE -144 256 -208 256
WIRE -80 256 -96 256
WIRE 320 256 320 240
WIRE -80 288 -208 288
WIRE -208 304 -208 288
WIRE 32 352 32 320
WIRE 64 352 64 320
WIRE 832 352 768 352
WIRE 928 352 928 240
WIRE 928 352 912 352
WIRE 944 352 928 352
WIRE 1008 352 944 352
WIRE 1152 352 1152 240
WIRE 1152 352 1088 352
WIRE 1200 352 1152 352
WIRE 1328 352 1280 352
WIRE 1360 352 1360 240
WIRE 1360 352 1328 352
WIRE 832 432 816 432
WIRE 944 432 944 352
WIRE 944 432 896 432
WIRE 64 448 64 432
FLAG -432 -112 0
FLAG -432 -192 V+
FLAG 992 128 V+
FLAG -368 -192 V-
FLAG 992 288 V-
FLAG -368 -112 0
FLAG 1024 288 V+
FLAG 816 304 0
FLAG 768 352 0
FLAG -288 272 0
FLAG 816 432 0
FLAG 32 352 0
FLAG 0 320 V-
FLAG 16 128 V+
FLAG -96 256 0
FLAG -208 384 0
FLAG 64 448 0
FLAG 336 32 V+
FLAG 336 96 V-
FLAG 368 96 V+
FLAG 464 272 0
FLAG 1328 64 outp
FLAG 1328 352 outn
FLAG 1424 128 0
FLAG 1424 48 out
FLAG 320 336 0
SYMBOL Opamps\\TI\\LMH6552 1024 208 R0
SYMATTR InstName U1
SYMBOL voltage -432 -208 R0
WINDOW 123 0 0 Left 2
WINDOW 39 0 0 Left 2
SYMATTR InstName V1
SYMATTR Value 5
SYMBOL voltage -368 -208 R0
WINDOW 123 0 0 Left 2
WINDOW 39 0 0 Left 2
SYMATTR InstName V2
SYMATTR Value -5
SYMBOL res 1104 48 R90
WINDOW 0 0 56 VBottom 2
WINDOW 3 32 56 VTop 2
SYMATTR InstName R1
SYMATTR Value 400
SYMBOL res 928 48 R90
WINDOW 0 0 56 VBottom 2
WINDOW 3 32 56 VTop 2
SYMATTR InstName R2
SYMATTR Value 100
SYMBOL res 1104 368 M270
WINDOW 0 32 56 VTop 2
WINDOW 3 0 56 VBottom 2
SYMATTR InstName R3
SYMATTR Value 400
SYMBOL res 928 368 M270
WINDOW 0 32 56 VTop 2
WINDOW 3 0 56 VBottom 2
SYMATTR InstName R4
SYMATTR Value 100
SYMBOL voltage 816 208 M0
WINDOW 123 0 0 Left 2
WINDOW 39 0 0 Left 2
SYMATTR InstName V3
SYMATTR Value 1
SYMBOL voltage -288 176 M0
WINDOW 123 24 124 Left 2
WINDOW 39 0 0 Left 2
SYMATTR Value2 AC 0.025
SYMATTR InstName V4
SYMATTR Value SINE(0 0.5 {freq})
SYMBOL res 1296 48 R90
WINDOW 0 0 56 VBottom 2
WINDOW 3 32 56 VTop 2
SYMATTR InstName R5
SYMATTR Value 50
SYMBOL res 1296 336 R90
WINDOW 0 0 56 VBottom 2
WINDOW 3 32 56 VTop 2
SYMATTR InstName R6
SYMATTR Value 50
SYMBOL res 1344 144 R0
SYMATTR InstName R7
SYMATTR Value 100
SYMBOL cap 912 -32 R90
WINDOW 0 0 32 VBottom 2
WINDOW 3 32 32 VTop 2
SYMATTR InstName C1
SYMATTR Value 2p2
SYMBOL cap 896 416 R90
WINDOW 0 0 32 VBottom 2
WINDOW 3 32 32 VTop 2
SYMATTR InstName C2
SYMATTR Value 2p2
SYMBOL MiscAnalog\\VCA821 32 224 R0
SYMATTR Value ""
SYMATTR InstName U2
SYMBOL res 224 48 R90
WINDOW 0 0 56 VBottom 2
WINDOW 3 32 56 VTop 2
SYMATTR InstName R8
SYMATTR Value 680
SYMBOL res -224 160 R0
SYMATTR InstName R9
SYMATTR Value 270
SYMBOL voltage -208 288 M0
WINDOW 123 0 0 Left 2
WINDOW 39 0 0 Left 2
SYMATTR InstName V5
SYMATTR Value 0.5
SYMBOL voltage 64 336 R0
WINDOW 123 0 0 Left 2
WINDOW 39 0 0 Left 2
SYMATTR InstName V6
SYMATTR Value -0.03
SYMBOL Opamps\\AD\\AD8000 336 0 R0
SYMATTR InstName U3
SYMBOL res 448 64 R0
SYMATTR InstName R10
SYMATTR Value 470
SYMBOL res 448 176 R0
SYMATTR InstName R11
SYMATTR Value 150
SYMBOL bv 1424 32 R0
SYMATTR InstName B1
SYMATTR Value V=V(outp,outn)
SYMBOL cap 304 176 R0
SYMATTR InstName C3
SYMATTR Value 1p
SYMBOL res 304 240 R0
SYMATTR InstName R12
SYMATTR Value 470
SYMBOL ind 32 80 R270
WINDOW 0 32 56 VTop 2
WINDOW 3 5 56 VBottom 2
SYMATTR InstName L1
SYMATTR Value 68n
TEXT -296 -160 Left 2 !.tran {10/freq}
TEXT -296 -184 Left 2 !.param freq 1k
TEXT -296 -136 Left 2 !;ac dec 50 100k 1G
TEXT 160 256 Left 2 ;-18dBV
