Version 4
SHEET 1 1376 680
WIRE 576 -16 544 -16
WIRE 672 -16 640 -16
WIRE 304 48 272 48
WIRE 112 64 48 64
WIRE 208 64 192 64
WIRE 464 64 368 64
WIRE 544 64 544 -16
WIRE 544 64 464 64
WIRE 560 64 544 64
WIRE 656 64 640 64
WIRE 672 64 672 -16
WIRE 672 64 656 64
WIRE 736 64 672 64
WIRE 880 64 816 64
WIRE 928 64 880 64
WIRE 1056 64 1008 64
WIRE 1088 64 1056 64
WIRE 208 80 208 64
WIRE 304 80 208 80
WIRE 464 80 464 64
WIRE 48 128 48 64
WIRE -80 160 -288 160
WIRE 272 160 272 48
WIRE 464 160 272 160
WIRE 1088 160 1088 64
WIRE -144 176 -208 176
WIRE 656 176 656 64
WIRE 688 176 656 176
WIRE 880 176 880 64
WIRE 880 176 848 176
WIRE -288 192 -288 160
WIRE -144 192 -144 176
WIRE -80 192 -144 192
WIRE 464 192 464 160
WIRE 688 208 544 208
WIRE -80 224 -144 224
WIRE 208 224 208 80
WIRE 208 224 144 224
WIRE 544 224 544 208
WIRE 688 240 656 240
WIRE 880 240 848 240
WIRE -144 256 -144 224
WIRE -144 256 -208 256
WIRE -80 256 -96 256
WIRE -80 288 -208 288
WIRE -208 304 -208 288
WIRE 32 352 32 320
WIRE 64 352 64 320
WIRE 560 352 496 352
WIRE 656 352 656 240
WIRE 656 352 640 352
WIRE 672 352 656 352
WIRE 736 352 672 352
WIRE 880 352 880 240
WIRE 880 352 816 352
WIRE 928 352 880 352
WIRE 1056 352 1008 352
WIRE 1088 352 1088 240
WIRE 1088 352 1056 352
WIRE 560 432 544 432
WIRE 672 432 672 352
WIRE 672 432 624 432
WIRE 64 448 64 432
FLAG -432 -112 0
FLAG -432 -192 V+
FLAG 720 128 V+
FLAG -368 -192 V-
FLAG 720 288 V-
FLAG -368 -112 0
FLAG 752 288 V+
FLAG 544 304 0
FLAG 496 352 0
FLAG -288 272 0
FLAG 544 432 0
FLAG 32 352 0
FLAG 0 320 V-
FLAG 16 128 V+
FLAG -96 256 0
FLAG -208 384 0
FLAG 64 448 0
FLAG 336 32 V+
FLAG 336 96 V-
FLAG 368 96 V+
FLAG 464 272 0
FLAG 1056 64 outp
FLAG 1056 352 outn
FLAG 1152 128 0
FLAG 1152 48 out
SYMBOL Opamps\\TI\\LMH6552 752 208 R0
SYMATTR InstName U1
SYMBOL voltage -432 -208 R0
WINDOW 123 0 0 Left 2
WINDOW 39 0 0 Left 2
SYMATTR InstName V1
SYMATTR Value 5
SYMBOL voltage -368 -208 R0
WINDOW 123 0 0 Left 2
WINDOW 39 0 0 Left 2
SYMATTR InstName V2
SYMATTR Value -5
SYMBOL res 832 48 R90
WINDOW 0 0 56 VBottom 2
WINDOW 3 32 56 VTop 2
SYMATTR InstName R1
SYMATTR Value 400
SYMBOL res 656 48 R90
WINDOW 0 0 56 VBottom 2
WINDOW 3 32 56 VTop 2
SYMATTR InstName R2
SYMATTR Value 100
SYMBOL res 832 368 M270
WINDOW 0 32 56 VTop 2
WINDOW 3 0 56 VBottom 2
SYMATTR InstName R3
SYMATTR Value 400
SYMBOL res 656 368 M270
WINDOW 0 32 56 VTop 2
WINDOW 3 0 56 VBottom 2
SYMATTR InstName R4
SYMATTR Value 100
SYMBOL voltage 544 208 M0
WINDOW 123 0 0 Left 2
WINDOW 39 0 0 Left 2
SYMATTR InstName V3
SYMATTR Value 1
SYMBOL voltage -288 176 M0
WINDOW 123 24 124 Left 2
WINDOW 39 0 0 Left 2
SYMATTR InstName V4
SYMATTR Value SINE(0 .013 {freq})
SYMATTR Value2 AC 0.025
SYMBOL res 1024 48 R90
WINDOW 0 0 56 VBottom 2
WINDOW 3 32 56 VTop 2
SYMATTR InstName R5
SYMATTR Value 50
SYMBOL res 1024 336 R90
WINDOW 0 0 56 VBottom 2
WINDOW 3 32 56 VTop 2
SYMATTR InstName R6
SYMATTR Value 50
SYMBOL res 1072 144 R0
SYMATTR InstName R7
SYMATTR Value 100
SYMBOL cap 640 -32 R90
WINDOW 0 0 32 VBottom 2
WINDOW 3 32 32 VTop 2
SYMATTR InstName C1
SYMATTR Value 2p2
SYMBOL cap 624 416 R90
WINDOW 0 0 32 VBottom 2
WINDOW 3 32 32 VTop 2
SYMATTR InstName C2
SYMATTR Value 2p2
SYMBOL MiscAnalog\\VCA821 32 224 R0
SYMATTR Value ""
SYMATTR InstName U2
SYMBOL res 208 48 R90
WINDOW 0 0 56 VBottom 2
WINDOW 3 32 56 VTop 2
SYMATTR InstName R8
SYMATTR Value 680
SYMBOL res -224 160 R0
SYMATTR InstName R9
SYMATTR Value 270
SYMBOL voltage -208 288 M0
WINDOW 123 0 0 Left 2
WINDOW 39 0 0 Left 2
SYMATTR InstName V5
SYMATTR Value 2
SYMBOL voltage 64 336 R0
WINDOW 123 0 0 Left 2
WINDOW 39 0 0 Left 2
SYMATTR InstName V6
SYMATTR Value -0.03
SYMBOL Opamps\\AD\\AD8000 336 0 R0
SYMATTR InstName U3
SYMBOL res 448 64 R0
SYMATTR InstName R10
SYMATTR Value 300
SYMBOL res 448 176 R0
SYMATTR InstName R11
SYMATTR Value 100
SYMBOL bv 1152 32 R0
SYMATTR InstName B1
SYMATTR Value V=V(outp,outn)
TEXT -296 -160 Left 2 !;tran {10/freq}
TEXT -296 -184 Left 2 !.param freq 100Meg
TEXT -296 -136 Left 2 !.ac dec 50 100k 1G
