Version 4
SHEET 1 2084 692
WIRE 352 -160 320 -160
WIRE 592 -160 416 -160
WIRE 1648 -128 1536 -128
WIRE 2016 -112 1888 -112
WIRE 320 -64 320 -160
WIRE 352 -64 320 -64
WIRE 496 -64 416 -64
WIRE 592 -64 592 -160
WIRE 592 -64 576 -64
WIRE 960 -64 944 -64
WIRE 1136 -64 1024 -64
WIRE 1888 -32 1888 -112
WIRE 1904 -32 1888 -32
WIRE 1536 -16 1536 -128
WIRE 1552 -16 1536 -16
WIRE 2016 -16 2016 -112
WIRE 2016 -16 1968 -16
WIRE 1648 0 1648 -128
WIRE 1648 0 1616 0
WIRE 1712 0 1648 0
WIRE 1904 0 1792 0
WIRE 2016 0 2016 -16
WIRE 64 16 -144 16
WIRE 224 16 224 -160
WIRE 224 16 64 16
WIRE 800 16 800 -160
WIRE 944 16 944 -64
WIRE 944 16 800 16
WIRE 1008 16 944 16
WIRE 1136 16 1136 -64
WIRE 1136 16 1088 16
WIRE 1248 16 1136 16
WIRE 1328 16 1248 16
WIRE 1552 16 1408 16
WIRE 64 32 64 16
WIRE 320 32 320 -64
WIRE 352 32 320 32
WIRE 448 32 416 32
WIRE 592 32 592 -64
WIRE 592 32 528 32
WIRE 944 48 944 16
WIRE -144 64 -144 16
WIRE 224 112 224 16
WIRE 320 112 320 32
WIRE 320 112 224 112
WIRE 400 112 320 112
WIRE 560 112 480 112
WIRE 592 112 592 32
WIRE 592 112 560 112
WIRE 656 112 592 112
WIRE 720 112 656 112
WIRE 800 112 800 16
WIRE 800 112 720 112
WIRE 160 144 160 112
WIRE 656 144 656 112
WIRE 720 144 720 112
WIRE 800 144 800 112
WIRE 944 144 944 128
WIRE 1248 144 1248 16
WIRE 1248 144 1136 144
WIRE 560 160 560 112
WIRE 1136 160 1136 144
WIRE 1248 160 1248 144
WIRE -144 208 -144 144
WIRE 720 256 720 208
WIRE 800 256 800 208
WIRE 1136 256 1136 224
WIRE 1248 256 1248 224
WIRE 1248 256 1136 256
WIRE 64 272 -144 272
WIRE 144 272 64 272
WIRE 560 272 560 240
WIRE 1248 272 1248 256
WIRE 1440 272 1248 272
WIRE 1712 272 1712 0
WIRE 1712 272 1520 272
WIRE -144 288 -144 272
WIRE 656 288 656 208
WIRE 64 304 64 272
WIRE 144 304 144 272
WIRE 720 352 720 336
WIRE 800 352 800 336
WIRE 64 400 64 368
WIRE 144 400 144 384
WIRE 1248 400 1248 272
WIRE 1248 400 1136 400
WIRE 1136 416 1136 400
WIRE 1248 416 1248 400
WIRE 144 448 -144 448
WIRE -144 464 -144 448
WIRE 144 480 144 448
WIRE 1136 544 1136 480
WIRE 1136 544 1072 544
WIRE 1248 544 1248 480
WIRE 1328 544 1248 544
WIRE 144 576 144 560
WIRE 288 576 288 560
WIRE 1136 576 1136 544
WIRE 1248 576 1248 544
WIRE 1136 672 1136 640
WIRE 1248 672 1248 640
FLAG 128 -224 0
FLAG 128 -304 V+
FLAG 1584 -32 V+
FLAG 192 -224 0
FLAG 192 -304 V-
FLAG 1584 32 V-
FLAG 1136 672 0
FLAG 1248 672 0
FLAG -144 208 0
FLAG 944 144 0
FLAG -144 368 0
FLAG 64 400 0
FLAG 144 400 0
FLAG 64 176 0
FLAG 560 272 0
FLAG 720 352 0
FLAG -144 544 0
FLAG 144 576 0
FLAG 160 224 0
FLAG 800 352 0
FLAG 992 544 V+
FLAG 1408 544 V-
FLAG 1936 -48 V+
FLAG 1968 16 V+
FLAG 1936 16 V-
FLAG 288 576 0
FLAG 656 288 0
SYMBOL Opamps\\opamp2 1584 -64 R0
SYMATTR InstName U1
SYMATTR Value ADA4817
SYMBOL voltage 128 -320 R0
WINDOW 123 0 0 Left 2
WINDOW 39 0 0 Left 2
SYMATTR InstName V1
SYMATTR Value 5
SYMBOL voltage 192 -320 R0
WINDOW 123 0 0 Left 2
WINDOW 39 0 0 Left 2
SYMATTR InstName V2
SYMATTR Value -5
SYMBOL diode 1120 160 R0
SYMATTR InstName D1
SYMATTR Value 1N4148
SYMBOL diode 1232 224 M180
WINDOW 0 24 64 Left 2
WINDOW 3 24 0 Left 2
SYMATTR InstName D2
SYMATTR Value 1N4148
SYMBOL res 1104 0 R90
WINDOW 0 0 56 VBottom 2
WINDOW 3 32 56 VTop 2
SYMATTR InstName R2
SYMATTR Value 100k
SYMBOL cap 1024 -80 R90
WINDOW 0 0 32 VBottom 2
WINDOW 3 32 32 VTop 2
SYMATTR InstName C1
SYMATTR Value 330p
SYMBOL voltage 288 464 R0
WINDOW 123 24 124 Left 2
WINDOW 39 0 0 Left 2
SYMATTR InstName V5
SYMATTR Value PULSE(-1 1 0 1n 1n {0.5/freq-1n} {1/freq})
SYMATTR Value2 AC 1
SYMBOL diode 1232 480 M180
WINDOW 0 24 64 Left 2
WINDOW 3 24 0 Left 2
SYMATTR InstName D3
SYMATTR Value 1N4148
SYMBOL diode 1152 576 M0
SYMATTR InstName D4
SYMATTR Value 1N4148
SYMBOL res 1536 256 R90
WINDOW 0 0 56 VBottom 2
WINDOW 3 32 56 VTop 2
SYMATTR InstName R3
SYMATTR Value 3k3
SYMBOL res 928 32 R0
SYMATTR InstName R6
SYMATTR Value 1Meg
SYMBOL voltage -144 272 R0
WINDOW 123 24 124 Left 2
WINDOW 39 0 0 Left 2
SYMATTR InstName V6
SYMATTR Value SINE(0 1 {freq})
SYMATTR Value2 AC 1
SYMBOL cap 48 304 R0
SYMATTR InstName C4
SYMATTR Value 11p
SYMBOL res 128 288 R0
SYMATTR InstName R5
SYMATTR Value 1Meg
SYMBOL cap 48 32 R0
SYMATTR InstName C5
SYMATTR Value 9p
SYMBOL res 48 80 R0
SYMATTR InstName R7
SYMATTR Value 33
SYMBOL res 496 96 R90
WINDOW 0 0 56 VBottom 2
WINDOW 3 32 56 VTop 2
SYMATTR InstName R8
SYMATTR Value 990000
SYMBOL res 576 144 M0
SYMATTR InstName R9
SYMATTR Value 10101
SYMBOL cap 704 144 R0
SYMATTR InstName C6
SYMATTR Value 215p
SYMBOL res 704 240 R0
SYMATTR InstName R10
SYMATTR Value 68
SYMBOL cap 416 16 R90
WINDOW 0 0 32 VBottom 2
WINDOW 3 32 32 VTop 2
SYMATTR InstName C7
SYMATTR Value 2p2
SYMBOL res 544 16 R90
WINDOW 0 0 56 VBottom 2
WINDOW 3 32 56 VTop 2
SYMATTR InstName R11
SYMATTR Value 6k8
SYMBOL res 144 16 R0
SYMATTR InstName R12
SYMATTR Value 50
SYMBOL voltage -144 448 R0
WINDOW 123 24 124 Left 2
WINDOW 39 0 0 Left 2
SYMATTR InstName V7
SYMATTR Value SINE(0 1 {freq})
SYMATTR Value2 AC 1
SYMBOL res 128 464 R0
SYMATTR InstName R13
SYMATTR Value 50
SYMBOL ind 144 128 R0
SYMATTR InstName L3
SYMATTR Value 19n
SYMBOL cap 416 -80 R90
WINDOW 0 0 32 VBottom 2
WINDOW 3 32 32 VTop 2
SYMATTR InstName C8
SYMATTR Value 0.5p
SYMBOL cap 784 144 R0
SYMATTR InstName C9
SYMATTR Value 47p
SYMBOL diode 1232 576 R0
SYMATTR InstName D6
SYMATTR Value BZX84C2V7
SYMBOL res 1088 528 R90
WINDOW 0 0 56 VBottom 2
WINDOW 3 32 56 VTop 2
SYMATTR InstName R14
SYMATTR Value 1k
SYMBOL res 1312 528 M90
WINDOW 0 0 56 VBottom 2
WINDOW 3 32 56 VTop 2
SYMATTR InstName R15
SYMATTR Value 1k
SYMBOL res 1424 0 R90
WINDOW 0 0 56 VBottom 2
WINDOW 3 32 56 VTop 2
SYMATTR InstName R16
SYMATTR Value 390
SYMBOL res 1808 -16 R90
WINDOW 0 0 56 VBottom 2
WINDOW 3 32 56 VTop 2
SYMATTR InstName R4
SYMATTR Value 33
SYMBOL Opamps\\AD\\AD8000 1936 -80 R0
SYMATTR InstName U2
SYMBOL voltage -144 48 R0
WINDOW 123 24 124 Left 2
WINDOW 39 0 0 Left 2
SYMATTR InstName V3
SYMATTR Value SINE(0 100 {freq})
SYMATTR Value2 AC 1
SYMBOL diode 1120 416 R0
SYMATTR InstName D7
SYMATTR Value 1N4148
SYMBOL res 784 240 R0
SYMATTR InstName R1
SYMATTR Value 10
SYMBOL res 592 -80 R90
WINDOW 0 0 56 VBottom 2
WINDOW 3 32 56 VTop 2
SYMATTR InstName R17
SYMATTR Value 820
SYMBOL cap 416 -176 R90
WINDOW 0 0 32 VBottom 2
WINDOW 3 32 32 VTop 2
SYMATTR InstName C2
SYMATTR Value 50f
SYMBOL cap 640 144 R0
SYMATTR InstName C3
SYMATTR Value 5p
TEXT -168 -264 Left 2 !.param freq 100Meg
TEXT -168 -240 Left 2 !.tran {10/freq}
TEXT -168 -216 Left 2 !.lib ADA4817.sub
TEXT -176 -192 Left 2 !;ac dec 50 10 1G
TEXT -112 600 Left 2 ;Reference Inputs
TEXT 336 -248 Left 2 ;Stray
TEXT 640 88 Left 2 ;Trimmable
RECTANGLE Normal 240 624 -208 240 2
RECTANGLE Normal 448 -112 320 -224 2
RECTANGLE Normal 896 240 624 128 2
